##############################################################################
###        CIF file generated by CrysFML         (version: May 2020)       ###
##############################################################################
 
 
_audit_creation_date Date: 14/11/2022  Time: 16:17:32.198
_audit_creation_method  'CrysFML' 
 
 
#=============================================================================
data_global
#=============================================================================
 
# SUBMISSION DETAILS
 
_publ_contact_author_name            ?   # Name of author for correspondence
_publ_contact_author_address             # Address of author for correspondence
; ?
;
_publ_contact_author_email           ?
_publ_contact_author_fax             ?
_publ_contact_author_phone           ?
 
_publ_contact_letter
; ?
;
 
_publ_requested_journal              ?
_publ_requested_coeditor_name        ?
_publ_requested_category             ?
#==============================================================================
 
# TITLE AND AUTHOR LIST
 
_publ_section_title
; ?
;
_publ_section_title_footnote
;
;
 
# The loop structure below should contain the names and addresses of all 
# authors, in the required order of publication. Repeat as necessary.
 
loop_
    _publ_author_name
    _publ_author_footnote
    _publ_author_address
?                                   #<--'Last name, first name' 
; ?
;
; ?
;
 
#==============================================================================
 
# TEXT
 
_publ_section_synopsis
;  ?
;
_publ_section_abstract
; ?
;          
_publ_section_comment
; ?
;
_publ_section_exptl_prep      # Details of the preparation of the sample(s)
                              # should be given here. 
; ?
;
_publ_section_exptl_refinement
; ?
;
_publ_section_references
; ?
;
_publ_section_figure_captions
; ?
;
_publ_section_acknowledgements
; ?
;
 
#=============================================================================
 
#=============================================================================
# If more than one structure is reported, the remaining sections should be 
# completed per structure. For each data set, replace the '?' in the
# data_? line below by a unique identifier.
 
data_Testing WriteCIF
 
# CHEMICAL DATA
 
_chemical_name_systematic
; ?
;
_chemical_name_common             ?
_chemical_formula_moiety          ?
_chemical_formula_structural      ?
_chemical_formula_analytical      ?
_chemical_formula_iupac           ?
_chemical_formula_sum             ?
_chemical_formula_weight          ?
_chemical_melting_point           ?
_chemical_compound_source         ?       # for minerals and 
                                          # natural products
 
loop_
    _atom_type_symbol               
    _atom_type_description          
    _atom_type_scat_dispersion_real 
    _atom_type_scat_dispersion_imag 
    _atom_type_scat_source          
    _atom_type_scat_length_neutron       # include if applicable
    ?    ?    ?    ?    ?      ?    
 
#=============================================================================
 
# 6. CRYSTAL DATA
 
_space_group_crystal_system        'Triclinic'
_space_group_name_H-M_alt         ?
_space_group_name_Hall            ?
loop_
    _space_group_symop_operation_xyz
'x,y,z,t,u,1'
'x,-y,z,t+1/2,-u,1'
'-x,y,-z,-t+1/2,u,-1'
'-x,-y,-z,-t,-u,-1'
 
_cell_length_a     5.23400
_cell_length_b     5.23400
_cell_length_c     8.33300
_cell_angle_alpha  90.00000
_cell_angle_beta   90.00000
_cell_angle_gamma  90.00000
_cell_volume        228.2805
 
_cell_measurement_temperature        ?
_cell_special_details
; ?
;
 
#=============================================================================
 
# ATOMIC COORDINATES AND DISPLACEMENT PARAMETERS
 
loop_
    _atom_site_label
    _atom_site_type_symbol
    _atom_site_fract_x
    _atom_site_fract_y
    _atom_site_fract_z
    _atom_site_B_iso_or_equiv
    _atom_site_occupancy
    _atom_site_adp_type
    _atom_site_type_symbol
    _atom_site_symmetry_multiplicity
 Co  MCO2  0.12300  0.00000  0.00000  0.45000  1.00000 Biso MCO2   4
 Fe1  MFE3  0.15000  0.00000  0.25000  0.45000  1.00000 Biso MFE3   4
 Fe2  MFE3  0.72340  0.23450  0.31320  0.45000  1.00000 Biso MFE3   4
 O1  O  0.12310  0.23140  0.72100  0.63000  1.00000 Biso O      4
 
 
# The following lines are used to test the character set of files sent by     
# network email or other means. They are not part of the CIF data set.        
# abcdefghijklmnopqrstuvwxyzABCDEFGHIJKLMNOPQRSTUVWXYZ0123456789              
# !@#$%^&*()_+{}:"~<>?|\-=[];'`,./ 
