# This file was generated by ISODISTORT, version 6.7.0
# Harold T. Stokes, Branton J. Campbell, David Tanner, Dorian M. Hatch
# Brigham Young University, Provo, Utah, USA
#
# Space Group:  19 P2_12_12_1 D2-4
# Default space-group preferences: monoclinic axes a(b)c, monoclinic cell choice 1, orthorhombic axes abc, origin choice 2, hexagonal axes, SSG standard setting
# Lattice parameters: a=6.64800, b=7.37080, c=9.10870, alpha=90.00000, beta=90.00000, gamma=90.00000
# Cu 4a (x,y,z), x=0.27390, y=0.03560, z=0.09740
# Se 4a (x,y,z), x=0.01780, y=0.20830, z=0.35960
# O1w 4a (x,y,z), x=0.30520, y=0.29500, z=0.03520
# H11 4a (x,y,z), x=0.19630, y=0.37040, z=0.03880
# H12 4a (x,y,z), x=0.12830, y=-0.31550, z=0.44570
# O2w 4a (x,y,z), x=0.45820, y=0.06090, z=0.31240
# H21 4a (x,y,z), x=-0.43650, y=0.13960, z=0.31880
# H22 4a (x,y,z), x=0.49220, y=0.44670, z=0.16050
# O3 4a (x,y,z), x=0.27470, y=0.22140, z=-0.36180
# O4 4a (x,y,z), x=0.00420, y=0.02380, z=0.47180
# O5 4a (x,y,z), x=0.02190, y=0.10500, z=0.19120
# Include displacive ALL, magnetic Cu distortions
# k point: GM, k19 (0,0,0)
# IR: mGM2, mk19t4
# k point: SM (a,0,0), a=0.02000 (1 incommensurate modulation/1 arm)
# IR: mSM2
# k point: LD (0,0,g), g=0.04000 (1 incommensurate modulation/1 arm)
# IR: mLD1

data_isodistort-output

_cell_length_a    6.64800
_cell_length_b    7.37080
_cell_length_c    9.10870
_cell_angle_alpha 90.00000
_cell_angle_beta  90.00000
_cell_angle_gamma 90.00000
_cell_volume      446.33612

_space_group_magn.ssg_number "19.2.29.2.m27.1"
_space_group_magn.ssg_name "P2_1'2_1'2_1(0,b1,0)000(0,0,g2)000"
_space_group_magn.point_group_name "2'2'2"


loop_
_space_group_magn_ssg_transforms.id
_space_group_magn_ssg_transforms.Pp_superspace
_space_group_magn_ssg_transforms.source
1 -a2,a1,a3,a4,a5;0,0,0,0,0 "ISO(3+d)D"
2 -a2,a1,a3,a4,a5;0,0,0,0,0 "ISOMAG-ISO(3+d)D"

loop_
_space_group_symop_magn_ssg_operation.id
_space_group_symop_magn_ssg_operation.algebraic
1 x1,x2,x3,x4,x5,+1
2 -x1,x2+1/2,-x3+1/2,-x4+1/2,-x5+1/2,-1
3 x1+1/2,-x2+1/2,-x3,x4,-x5+1/2,-1
4 -x1+1/2,-x2,x3+1/2,-x4+1/2,x5,+1

loop_
_space_group_symop_magn_ssg_centering.id
_space_group_symop_magn_ssg_centering.algebraic
1 x1,x2,x3,x4,x5,+1

loop_
_atom_site_label
_atom_site_type_symbol
_atom_site_symmetry_multiplicity
_atom_site_Wyckoff_label
_atom_site_fract_x
_atom_site_fract_y
_atom_site_fract_z
_atom_site_occupancy
_atom_site_fract_symmform
Cu_1  Cu   4 a 0.27390 0.03560 0.09740 1.00000 Dx,Dy,Dz 
Se_1  Se   4 a 0.01780 0.20830 0.35960 1.00000 Dx,Dy,Dz 
O1w_1 O    4 a 0.30520 0.29500 0.03520 1.00000 Dx,Dy,Dz 
H11_1 H    4 a 0.19630 0.37040 0.03880 1.00000 Dx,Dy,Dz 
H12_1 H    4 a 0.12830 0.68450 0.44570 1.00000 Dx,Dy,Dz 
O2w_1 O    4 a 0.45820 0.06090 0.31240 1.00000 Dx,Dy,Dz 
H21_1 H    4 a 0.56350 0.13960 0.31880 1.00000 Dx,Dy,Dz 
H22_1 H    4 a 0.49220 0.44670 0.16050 1.00000 Dx,Dy,Dz 
O3_1  O    4 a 0.27470 0.22140 0.63820 1.00000 Dx,Dy,Dz 
O4_1  O    4 a 0.00420 0.02380 0.47180 1.00000 Dx,Dy,Dz 
O5_1  O    4 a 0.02190 0.10500 0.19120 1.00000 Dx,Dy,Dz 

_cell_modulation_dimension 2

loop_
_cell_wave_vector_seq_id
_cell_wave_vector_x
_cell_wave_vector_y
_cell_wave_vector_z
  1   0.02000   0.00000   0.00000
  2   0.00000   0.00000   0.04000

loop_
_atom_site_Fourier_wave_vector_seq_id
_atom_site_Fourier_wave_vector_x
_atom_site_Fourier_wave_vector_y
_atom_site_Fourier_wave_vector_z
_atom_site_Fourier_wave_vector_q1_coeff
_atom_site_Fourier_wave_vector_q2_coeff
1    0.02000   0.00000   0.00000  1  0
2    0.00000   0.00000   0.04000  0  1
3    0.02000   0.00000   0.04000  1  1
4    0.04000   0.00000   0.04000  2  1

loop_
_atom_site_displace_Fourier_atom_site_label
_atom_site_displace_Fourier_wave_vector_seq_id
_atom_site_displace_Fourier_axis
_atom_site_displace_Fourier_param_cos
_atom_site_displace_Fourier_param_sin
_atom_site_displace_Fourier_param.cos_symmform
_atom_site_displace_Fourier_param.sin_symmform
Cu_1  1 x      0.00100   0.00400  Dxc1 Dxs1
Cu_1  1 y      0.00200   0.00500  Dyc1 Dys1
Cu_1  1 z      0.00300   0.00600  Dzc1 Dzs1
Cu_1  2 x      0.00400   0.00700  Dxc2 Dxs2
Cu_1  2 y      0.00500   0.00800  Dyc2 Dys2
Cu_1  2 z      0.00600   0.00900  Dzc2 Dzs2
Se_1  1 x      0.00700   0.01100  Dxc1 Dxs1
Se_1  1 y      0.00800   0.00400  Dyc1 Dys1
Se_1  1 z      0.00900   0.00300  Dzc1 Dzs1
Se_1  2 x      0.00400   0.00300  Dxc2 Dxs2
Se_1  2 y      0.00300   0.00100  Dyc2 Dys2
Se_1  2 z      0.00200   0.00200  Dzc2 Dzs2
O1w_1 1 x      0.00100   0.00400  Dxc1 Dxs1
O1w_1 1 y      0.00300   0.00300  Dyc1 Dys1
O1w_1 1 z      0.00200   0.00300  Dzc1 Dzs1
O1w_1 2 x      0.00100   0.00300  Dxc2 Dxs2
O1w_1 2 y      0.00300   0.00300  Dyc2 Dys2
O1w_1 2 z      0.01200   0.00310  Dzc2 Dzs2
H11_1 1 x      0.00500   0.00310  Dxc1 Dxs1
H11_1 1 y      0.00540   0.00320  Dyc1 Dys1
H11_1 1 z      0.00530   0.00320  Dzc1 Dzs1
H11_1 2 x      0.00520   0.00330  Dxc2 Dxs2
H11_1 2 y      0.00510   0.00340  Dyc2 Dys2
H11_1 2 z      0.00530   0.00350  Dzc2 Dzs2
H12_1 1 x      0.00520   0.00310  Dxc1 Dxs1
H12_1 1 y      0.00510   0.00310  Dyc1 Dys1
H12_1 1 z      0.00530   0.00310  Dzc1 Dzs1
H12_1 2 x      0.00520   0.00310  Dxc2 Dxs2
H12_1 2 y      0.00550   0.00310  Dyc2 Dys2
H12_1 2 z      0.00501   0.00310  Dzc2 Dzs2
O2w_1 1 x      0.00502   0.00300  Dxc1 Dxs1
O2w_1 1 y      0.00500   0.00300  Dyc1 Dys1
O2w_1 1 z      0.00500   0.00300  Dzc1 Dzs1
O2w_1 2 x      0.00500   0.00300  Dxc2 Dxs2
O2w_1 2 y      0.00500   0.00300  Dyc2 Dys2
O2w_1 2 z      0.00500   0.00300  Dzc2 Dzs2
H21_1 1 x      0.00500   0.00300  Dxc1 Dxs1
H21_1 1 y      0.00500   0.00300  Dyc1 Dys1
H21_1 1 z      0.00500   0.00300  Dzc1 Dzs1
H21_1 2 x      0.00100   0.00300  Dxc2 Dxs2
H21_1 2 y      0.00100   0.00300  Dyc2 Dys2
H21_1 2 z      0.00100   0.00300  Dzc2 Dzs2
H22_1 1 x      0.00100   0.00300  Dxc1 Dxs1
H22_1 1 y      0.00100   0.00300  Dyc1 Dys1
H22_1 1 z      0.00100   0.00320  Dzc1 Dzs1
H22_1 2 x      0.00100   0.00320  Dxc2 Dxs2
H22_1 2 y      0.00100   0.00320  Dyc2 Dys2
H22_1 2 z      0.00100   0.00320  Dzc2 Dzs2
O3_1  1 x      0.00100   0.00320  Dxc1 Dxs1
O3_1  1 y      0.00100   0.00320  Dyc1 Dys1
O3_1  1 z      0.00100   0.00320  Dzc1 Dzs1
O3_1  2 x      0.00100   0.00320  Dxc2 Dxs2
O3_1  2 y      0.00100   0.00320  Dyc2 Dys2
O3_1  2 z      0.00100   0.00220  Dzc2 Dzs2
O4_1  1 x      0.00100   0.00320  Dxc1 Dxs1
O4_1  1 y      0.00100   0.00320  Dyc1 Dys1
O4_1  1 z      0.00200   0.00320  Dzc1 Dzs1
O4_1  2 x      0.00100   0.00320  Dxc2 Dxs2
O4_1  2 y      0.00200   0.00320  Dyc2 Dys2
O4_1  2 z      0.00100   0.00320  Dzc2 Dzs2
O5_1  1 x      0.00100   0.00320  Dxc1 Dxs1
O5_1  1 y      0.00300   0.00620  Dyc1 Dys1
O5_1  1 z      0.00100   0.00320  Dzc1 Dzs1
O5_1  2 x      0.00500   0.00320  Dxc2 Dxs2
O5_1  2 y      0.00800   0.00320  Dyc2 Dys2
O5_1  2 z      0.00900   0.00320  Dzc2 Dzs2
                    
loop_
_atom_site_moment_Fourier.atom_site_label
_atom_site_moment_Fourier.wave_vector_seq_id
_atom_site_moment_Fourier.axis
_atom_site_moment_Fourier_param.cos
_atom_site_moment_Fourier_param.sin
_atom_site_moment_Fourier_param.cos_symmform
_atom_site_moment_Fourier_param.sin_symmform
Cu_1  1 x      0.20000   0.10000  Mxc1 Mxs1
Cu_1  1 y      0.30000   0.20000  Myc1 Mys1
Cu_1  1 z     -0.12300   0.33000  Mzc1 Mzs1
Cu_1  2 x      0.40000   0.50000  Mxc2 Mxs2
Cu_1  2 y      0.30000   0.30000  Myc2 Mys2
Cu_1  2 z      0.20000   0.10000  Mzc2 Mzs2


# end of structure file
# end of cif
